Version 4.1
SHEET 1 3020 2228
WIRE -192 16 -240 16
WIRE 112 16 -96 16
WIRE 160 16 112 16
WIRE 224 16 160 16
WIRE 384 16 304 16
WIRE 544 16 384 16
WIRE 720 16 544 16
WIRE -1392 64 -1440 64
WIRE -1088 64 -1296 64
WIRE -1040 64 -1088 64
WIRE -976 64 -1040 64
WIRE -816 64 -896 64
WIRE -656 64 -816 64
WIRE -240 80 -240 16
WIRE 384 80 384 16
WIRE 544 80 544 16
WIRE 160 96 160 16
WIRE 944 96 944 16
WIRE -112 112 -112 64
WIRE -80 112 -112 112
WIRE 32 112 0 112
WIRE 112 112 112 16
WIRE -1440 128 -1440 64
WIRE -816 128 -816 64
WIRE -656 128 -656 64
WIRE -1040 144 -1040 64
WIRE -1312 160 -1312 112
WIRE -1280 160 -1312 160
WIRE -1168 160 -1200 160
WIRE -1088 160 -1088 64
WIRE 944 224 944 176
WIRE 1168 240 992 240
WIRE -240 256 -240 160
WIRE 160 256 160 160
WIRE 160 256 -240 256
WIRE 384 256 384 144
WIRE 384 256 160 256
WIRE 544 256 544 160
WIRE 544 256 384 256
WIRE 1168 256 1168 240
WIRE 384 288 384 256
WIRE 1040 288 992 288
WIRE -1440 304 -1440 208
WIRE -1040 304 -1040 208
WIRE -1040 304 -1440 304
WIRE -816 304 -816 192
WIRE -816 304 -1040 304
WIRE -656 304 -656 208
WIRE -656 304 -816 304
WIRE 720 320 720 16
WIRE -816 336 -816 304
WIRE 944 352 944 304
WIRE 1040 352 1040 288
WIRE 1040 352 944 352
WIRE 1168 352 1168 336
WIRE 1168 352 1040 352
WIRE 944 384 944 352
WIRE 336 416 240 416
WIRE 496 416 400 416
WIRE 240 496 240 416
WIRE 256 496 240 496
WIRE 384 496 320 496
WIRE 496 496 496 416
WIRE 496 496 464 496
WIRE -848 512 -1040 512
WIRE -1104 528 -1232 528
WIRE -992 544 -1040 544
WIRE -992 576 -992 544
WIRE -848 576 -848 512
WIRE 368 608 368 592
WIRE 496 624 496 496
WIRE 496 624 400 624
WIRE 720 624 720 400
WIRE 720 624 496 624
WIRE 240 640 240 496
WIRE 240 640 16 640
WIRE 336 640 240 640
WIRE -48 656 -176 656
WIRE 496 656 400 656
WIRE 64 672 16 672
WIRE -992 688 -992 656
WIRE -848 688 -848 656
WIRE 64 704 64 672
WIRE 496 704 496 656
WIRE 720 704 720 624
WIRE 64 816 64 784
WIRE 240 832 240 800
WIRE 368 832 368 672
WIRE 496 832 496 784
WIRE 720 832 720 784
WIRE 240 944 240 912
FLAG 384 288 0
FLAG 64 816 0
FLAG -176 656 pwm
FLAG 720 832 0
FLAG 496 832 0
FLAG 368 832 0
FLAG 240 944 0
FLAG 240 800 +Vcc
FLAG 368 592 +Vcc
FLAG -816 336 0
FLAG -992 688 0
FLAG -1232 528 duty
FLAG -848 688 0
FLAG 944 384 0
SYMBOL ind 208 32 R270
WINDOW 0 32 56 VTop 2
WINDOW 3 5 56 VBottom 2
SYMATTR InstName L1
SYMATTR Value 390µ
SYMBOL cap 368 80 R0
SYMATTR InstName C1
SYMATTR Value 10µ
SYMATTR SpiceLine Rser=5m
SYMBOL res 528 64 R0
SYMATTR InstName R1
SYMATTR Value 6
SYMBOL voltage -240 64 R0
WINDOW 123 0 0 Left 0
WINDOW 39 0 0 Left 0
SYMATTR InstName V1
SYMATTR Value 24
SYMBOL schottky 176 160 R180
WINDOW 0 -8 -2 Left 2
WINDOW 3 -153 -32 Left 2
SYMATTR InstName D
SYMATTR Value RBR10NS60A
SYMATTR Description Diode
SYMATTR Type diode
SYMBOL voltage 64 688 R0
WINDOW 3 -810 109 Left 2
SYMATTR Value PWL REPEAT FOREVER(0 0 {0.5/Fs} 15 {1/Fs} 0) ENDREPEAT
SYMATTR InstName V2
SYMBOL Digital\\diffschmtbuf 16 592 M0
WINDOW 3 40 110 Invisible 2
SYMATTR Value Vhigh=15 Vlow=0 Ref=0
SYMATTR InstName A1
SYMBOL bv 16 112 R270
WINDOW 0 32 56 VTop 2
WINDOW 3 -32 56 VBottom 2
SYMATTR InstName B1
SYMATTR Value V=V(pwm)
SYMBOL res 16 96 R90
WINDOW 0 0 56 VBottom 2
WINDOW 3 32 56 VTop 2
SYMATTR InstName R2
SYMATTR Value 10
SYMBOL res 704 304 R0
SYMATTR InstName R3
SYMATTR Value 10k
SYMBOL res 704 688 R0
SYMATTR InstName R4
SYMATTR Value 2.6k
SYMBOL OpAmps\\UniversalOpamp2 368 640 M0
SYMATTR InstName U1
SYMBOL voltage 496 688 R0
WINDOW 123 0 0 Left 0
WINDOW 39 0 0 Left 0
SYMATTR InstName V4
SYMATTR Value 2.5
SYMBOL voltage 240 816 R0
WINDOW 123 0 0 Left 0
WINDOW 39 0 0 Left 0
SYMATTR InstName V5
SYMATTR Value 15
SYMBOL res 480 480 R90
WINDOW 0 0 56 VBottom 2
WINDOW 3 32 56 VTop 2
SYMATTR InstName R5
SYMATTR Value 620
SYMBOL cap 320 480 R90
WINDOW 0 0 32 VBottom 2
WINDOW 3 32 32 VTop 2
SYMATTR InstName C2
SYMATTR Value 100n
SYMBOL cap 400 400 R90
WINDOW 0 0 32 VBottom 2
WINDOW 3 32 32 VTop 2
SYMATTR InstName C3
SYMATTR Value 10n
SYMBOL nmos -192 64 R270
WINDOW 0 71 -4 VRight 2
WINDOW 3 71 39 VRight 2
SYMATTR InstName M1
SYMATTR Value BSC028N06LS3
SYMBOL ind -992 80 R270
WINDOW 0 32 56 VTop 2
WINDOW 3 5 56 VBottom 2
SYMATTR InstName L2
SYMATTR Value 390µ
SYMBOL cap -832 128 R0
SYMATTR InstName C4
SYMATTR Value 10µ
SYMATTR SpiceLine Rser=5m
SYMBOL res -672 112 R0
SYMATTR InstName R7
SYMATTR Value 6r
SYMBOL voltage -1440 112 R0
WINDOW 123 0 0 Left 0
WINDOW 39 0 0 Left 0
SYMATTR InstName V6
SYMATTR Value 24
SYMBOL schottky -1024 208 R180
WINDOW 0 -54 35 Left 2
WINDOW 3 -174 -3 Left 2
SYMATTR InstName D1
SYMATTR Value RBR10NS60A
SYMATTR Description Diode
SYMATTR Type diode
SYMBOL bv -1184 160 R270
WINDOW 0 32 56 VTop 2
WINDOW 3 -32 56 VBottom 2
SYMATTR InstName B2
SYMATTR Value V=V(duty)
SYMBOL res -1184 144 R90
WINDOW 0 0 56 VBottom 2
WINDOW 3 32 56 VTop 2
SYMATTR InstName R8
SYMATTR Value 10
SYMBOL nmos -1392 112 R270
WINDOW 0 71 -4 VRight 2
WINDOW 3 73 70 VRight 2
SYMATTR InstName M2
SYMATTR Value BSC028N06LS3
SYMBOL voltage -992 560 R0
WINDOW 3 -884 72 Left 2
SYMATTR Value PWL REPEAT FOREVER(0 0 {0.5/Fs} 15 {1/Fs} 0) ENDREPEAT
SYMATTR InstName V7
SYMBOL Digital\\diffschmtbuf -1040 464 M0
WINDOW 3 40 110 Invisible 2
SYMATTR Value Vhigh=15 Vlow=0 Ref=0
SYMATTR InstName A2
SYMBOL voltage -848 560 R0
WINDOW 123 0 0 Left 0
WINDOW 39 0 0 Left 0
SYMATTR InstName V8
SYMATTR Value {0.51*15}
SYMBOL res 928 80 R0
SYMATTR InstName R6
SYMATTR Value 1.44
SYMBOL sw 944 320 R180
SYMATTR InstName S1
SYMBOL voltage 1168 240 R0
WINDOW 123 0 0 Left 0
WINDOW 39 0 0 Left 0
WINDOW 3 94 27 Left 2
SYMATTR Value PULSE(0 1 4m 100n 100n 3m 6m)
SYMATTR InstName V3
TEXT -208 -280 Left 2 !.tran 0 10m 0 0.1u uic
TEXT -208 -232 Left 2 !.param Fs=50000 D=0.4
TEXT -208 -192 Left 2 !.model SW SW(Vt=0.5)
TEXT -1440 -72 Left 3 ;BUCK MALHA ABERTA
TEXT -240 -128 Left 3 ;BUCK MALHA FECHADA
TEXT -1512 680 Left 2 ;confi. Modulação PwM
TEXT 136 368 Left 2 ;control tipo 2
TEXT 1024 192 Left 2 ;simulação de carga
TEXT -976 480 Left 2 ;modulação PWM
TEXT -416 752 Left 2 ;confi. Modulação PwM
TEXT 1472 288 Left 2 ;confi. da carga
